--Link1--
%chk=molecule
#HF/6-31G* SCF=tight Test Pop=MK iop(6/33=2) iop(6/42=6) opt
# iop(6/50=1)

remark line goes here

0   1
    C   17.6910000000       50.5790000000       18.7120000000     
    C   16.5110000000       50.6410000000       19.6890000000     
    C   15.5290000000       49.5280000000       19.5990000000     
    C   15.8320000000       48.3240000000       18.7990000000     
    C   16.9680000000       48.1980000000       18.0650000000     
    C   17.2120000000       46.8790000000       17.3370000000     
    C   17.7540000000       47.1770000000       15.9070000000     
    C   18.9650000000       48.1050000000       15.9650000000     
    C   18.7440000000       49.4000000000       16.7460000000     
    C   18.0760000000       49.2420000000       18.1040000000     
    C   19.8010000000       50.4520000000       16.5330000000     
    C   20.4760000000       50.6210000000       15.1910000000     
    C   20.7740000000       49.3320000000       14.5060000000     
    C   19.6380000000       48.3660000000       14.5990000000     
    C   19.9880000000       47.2230000000       13.6800000000     
    C   20.9800000000       47.8040000000       12.6320000000     
    C   21.2730000000       49.2560000000       13.0860000000     
    C   21.9330000000       48.9210000000       15.4290000000     
    C   19.1610000000       48.7450000000       19.0500000000     
    C   22.6180000000       49.8530000000       12.8140000000     
    C   22.6730000000       51.3430000000       12.5000000000     
    O   14.4630000000       49.7000000000       20.1850000000     
    O   20.3150000000       50.0170000000       12.3250000000     
    O   23.6320000000       49.2120000000       12.9120000000     
    O   23.9960000000       51.8010000000       12.4750000000     
    H   18.5660000000       50.9510000000       19.2450000000     
    H   17.4820000000       51.2680000000       17.8940000000     
    H   16.9160000000       50.6470000000       20.7010000000     
    H   15.9810000000       51.5800000000       19.5270000000     
    H   15.1210000000       47.5110000000       18.7980000000     
    H   16.2770000000       46.3240000000       17.2640000000     
    H   17.9440000000       46.2880000000       17.8880000000     
    H   18.0460000000       46.2390000000       15.4340000000     
    H   16.9680000000       47.6480000000       15.3160000000     
    H   19.7090000000       47.5560000000       16.5420000000     
    H   19.8210000000       51.2090000000       14.5480000000     
    H   21.4090000000       51.1660000000       15.3340000000     
    H   18.8510000000       48.8780000000       14.0450000000     
    H   19.0920000000       46.8470000000       13.1860000000     
    H   20.4670000000       46.4230000000       14.2450000000     
    H   21.9000000000       47.2190000000       12.6150000000     
    H   20.5210000000       47.8070000000       11.6440000000     
    H   22.1210000000       51.8890000000       13.2650000000     
    H   22.2130000000       51.5220000000       11.5280000000     
    H   19.5230000000       47.7740000000       18.7110000000     
    H   18.7500000000       48.6480000000       20.0550000000     
    H   19.9870000000       49.4570000000       19.0620000000     
    H   24.0050000000       52.7470000000       12.3100000000     
    H   20.6540000000       50.1640000000       11.4390000000     
    H   22.3310000000       47.9590000000       15.1070000000     
    H   21.5700000000       48.8390000000       16.4530000000     
    H   22.7200000000       49.6740000000       15.3820000000     
    H   19.3360000000       51.4090000000       16.7680000000     
    O   20.7310000000       50.2480000000       17.4110000000     
    H   21.1710000000       50.9940000000       17.8260000000     
    H   17.9220000000       49.8330000000       16.1750000000     

col.gesp

col.gesp


