--Link1--
%chk=molecule
%CPU=0-39
#HF/6-31G* SCF=tight Test Pop=MK iop(6/33=2) iop(6/42=6) opt
# iop(6/50=1)

remark line goes here

0   1
    C   19.8690000000       73.9850000000       20.2980000000     
    C   17.4540000000       73.7690000000       20.9300000000     
    C   18.9880000000       72.9270000000       22.5790000000     
    C   18.6710000000       70.4240000000       19.0570000000     
    C   19.7280000000       70.1500000000       17.9400000000     
    C   19.4660000000       69.3560000000       16.8630000000     
    C   18.0980000000       68.6680000000       16.6730000000     
    C   19.0190000000       69.4610000000       20.2520000000     
    C   20.7120000000       75.7070000000       21.8690000000     
    C   19.1650000000       75.5790000000       21.9060000000     
    C   18.4730000000       76.1350000000       23.2050000000     
    C   16.9620000000       76.3720000000       23.1630000000     
    C   21.1670000000       74.6940000000       20.7910000000     
    C   18.8680000000       74.0950000000       21.5270000000     
    C   20.0500000000       72.5000000000       19.8510000000     
    C   18.6260000000       71.9600000000       19.5140000000     
    C   17.6310000000       72.2430000000       20.7480000000     
    O   18.1950000000       71.8110000000       22.0140000000     
    O   18.4670000000       73.1810000000       23.6740000000     
    O   17.7750000000       68.1030000000       15.6350000000     
    C   17.1170000000       68.6840000000       17.8740000000     
    C   17.2550000000       70.1010000000       18.4580000000     
    C   21.1150000000       70.8010000000       18.1620000000     
    C   20.9910000000       72.2900000000       18.6050000000     
    O   19.1330000000       76.3610000000       24.1900000000     
    O   16.4690000000       76.4520000000       24.5030000000     
    H   19.4580000000       74.5520000000       19.4630000000     
    H   16.6490000000       74.0090000000       21.6250000000     
    H   17.3080000000       74.2660000000       19.9710000000     
    H   20.2370000000       69.2040000000       16.1220000000     
    H   21.1410000000       75.4540000000       22.8390000000     
    H   21.0000000000       76.7180000000       21.5810000000     
    H   18.7910000000       76.1840000000       21.0800000000     
    H   16.4760000000       75.5460000000       22.6430000000     
    H   16.7530000000       77.3060000000       22.6410000000     
    H   21.6530000000       75.2120000000       19.9650000000     
    H   21.8490000000       73.9640000000       21.2280000000     
    H   20.4500000000       71.9300000000       20.6900000000     
    H   18.2570000000       72.5360000000       18.6660000000     
    H   16.6660000000       71.7650000000       20.5770000000     
    H   16.0950000000       68.5020000000       17.5410000000     
    H   17.4120000000       67.9400000000       18.6140000000     
    H   16.5160000000       70.2160000000       19.2510000000     
    H   17.0370000000       70.8240000000       17.6720000000     
    H   21.6450000000       70.2460000000       18.9360000000     
    H   21.6850000000       70.7520000000       17.2340000000     
    H   20.5910000000       72.8660000000       17.7700000000     
    H   21.9840000000       72.6680000000       18.8480000000     
    H   15.5210000000       76.6010000000       24.4870000000     
    H   19.3570000000       68.5020000000       19.8600000000     
    H   19.8090000000       69.9050000000       20.8570000000     
    H   18.1320000000       69.3100000000       20.8670000000     
    H   17.9260000000       70.9070000000       22.1930000000     
    H   19.4800000000       71.9900000000       22.3650000000     

as4.gesp

as4.gesp


